* PSpice Model Editor - Version 16.6.0
*$
.model Dtrr D is=1e-15 tt=10E-9 CJO=1e-12 vj=0.7 m=0.33
*$
*b Device model created by analog_uprev for 1n4148 on Mon Feb  5 06:57:23 IST 2001
.subckt awb1n4148 AN CAT
+ params:
+ IC=1.10250E-36
+ STATE=1
+ AREA=1.0
+ STATE_FACTOR=0
+ IS=1.0E-9
+ RS=0.5
+ N=1.55
+ TT=5.0E-9
+ CJO=1.85E-12
+ VJ=0.65
+ M=0.18
+ EG=1.11
+ XTI=3.0
+ KF=0.0
+ AF=1.0
+ FC=0.5
+ BV=120
+ IBV=1.0
D1n4148_0 AN CAT model22 {area} {state} IC={IC}
.model model22 D
+  is={IS}
+  rs={RS}
+  n={N}
+  tt={TT}
+  cjo={CJO}
+  vj={VJ}
+  m={M}
+  eg={EG}
+  xti={XTI}
+  kf={KF}
+  af={AF}
+  fc={FC}
+  bv={BV}
+  ibv={IBV}
+ 
.ends  awb1n4148
*
*
*$
