* PSpice Model Editor - Version 16.6.0
*$
*BeginSpec
*IF:
*JC:
*RL:
*RB: Vz=0 Iz=0 Zz=0
*RR: Trr=0 Ifwd=10.000E-3 Irev=10.000E-3 Rl=100
*EndSpec
*BeginTrace
*IF: 1,0,.4,1.2000,1,3,0,0,-1 (27)
*JC: 0,1,.1,10,1,3,0,0,-1 (27)
*RL: 0,0,1,100,1,3,0,0,-1 (27)
*RB: 0,1,100.00E-6,1,1,3,0,0,-1 (27)
*RR: 0,0,-5.0000E-9,20.000E-9,1,3,0,0,-1 (27)
*EndTrace
*BeginParam
*IS=1.0000E-15 (0,0,0)
*N=-1 (-1,-1,0)
*RS=-1 (-1,-1,0)
*IKF=-1 (-1,-1,0)
*XTI=-1 (-1,-1,0)
*EG=-1 (-1,-1,0)
*CJO=1.0000E-12 (-1,-1,0)
*M=.33 (-1,-1,0)
*VJ=.7 (-1,-1,0)
*FC=-1 (-1,-1,0)
*ISR=-1 (-1,-1,0)
*NR=-1 (-1,-1,0)
*BV=-1 (-1,-1,0)
*IBV=-1 (-1,-1,0)
*TT=10.000E-9 (-1,-1,0)
*EndParam
*DEVICE=DTrr,D
* DTrr D model
* created using Model Editor release 16.6.0 on 05/18/13 at 21:20
* The Model Editor is a PSpice product.
.MODEL DTrr D
+ IS=1.0000E-15
+ N=-1
+ RS=-1
+ IKF=-1
+ XTI=-1
+ EG=-1
+ CJO=1.0000E-12
+ M=.33
+ VJ=.7
+ FC=-1
+ ISR=-1
+ NR=-1
+ BV=-1
+ IBV=-1
+ TT=10.000E-9
*$
*b Device model created by analog_uprev for 1n4148 on Mon Feb  5 06:57:23 IST 2001
.subckt awb1n4148 AN CAT
+ params:
+ IC=1.10250E-36
+ STATE=1
+ AREA=1.0
+ STATE_FACTOR=0
+ IS=1.0E-9
+ RS=0.5
+ N=1.55
+ TT=5.0E-9
+ CJO=1.85E-12
+ VJ=0.65
+ M=0.18
+ EG=1.11
+ XTI=3.0
+ KF=0.0
+ AF=1.0
+ FC=0.5
+ BV=120
+ IBV=1.0
D1n4148_0 AN CAT model22 {area} {state} IC={IC}
.model model22 D
+  is={IS}
+  rs={RS}
+  n={N}
+  tt={TT}
+  cjo={CJO}
+  vj={VJ}
+  m={M}
+  eg={EG}
+  xti={XTI}
+  kf={KF}
+  af={AF}
+  fc={FC}
+  bv={BV}
+  ibv={IBV}
+ 
.ends  awb1n4148
*
*
*$
